Version 4.1
SHEET 1 1988 1204
WIRE 752 -336 720 -336
WIRE 1536 -320 1248 -320
WIRE 720 -304 720 -336
WIRE 752 -304 720 -304
WIRE 1536 -288 1248 -288
WIRE 1536 -256 1248 -256
WIRE 1536 -224 1248 -224
WIRE 752 -208 688 -208
WIRE 752 -176 688 -176
WIRE 1536 -128 1248 -128
WIRE 1536 -96 1248 -96
WIRE 752 -80 688 -80
WIRE 1536 -64 1248 -64
WIRE 752 -48 688 -48
WIRE 1536 -32 1248 -32
WIRE 752 -16 688 -16
WIRE 432 0 400 0
WIRE 752 16 720 16
WIRE 112 64 48 64
WIRE 112 80 80 80
WIRE 80 96 80 80
WIRE 112 96 80 96
WIRE 464 128 400 128
WIRE 720 144 720 16
WIRE 768 144 768 96
WIRE 768 144 720 144
WIRE 800 144 800 96
WIRE 720 160 720 144
WIRE 112 224 48 224
WIRE -160 272 -224 272
WIRE -160 336 -224 336
WIRE 1536 352 1040 352
WIRE -176 368 -224 368
WIRE 80 368 80 96
WIRE 112 368 80 368
WIRE 464 368 400 368
WIRE 80 384 80 368
WIRE 112 384 80 384
WIRE 464 384 400 384
WIRE 1536 384 1056 384
WIRE -208 400 -224 400
WIRE 1536 416 1072 416
WIRE 1536 448 1088 448
WIRE -208 464 -208 400
WIRE 112 496 48 496
WIRE 464 496 400 496
WIRE 112 512 48 512
WIRE 464 512 400 512
WIRE 112 528 48 528
WIRE 464 528 400 528
WIRE 752 528 720 528
WIRE 112 544 48 544
WIRE 464 544 400 544
WIRE 1040 544 1040 352
WIRE 1040 544 1024 544
WIRE 1536 544 1248 544
WIRE 112 560 48 560
WIRE 464 560 400 560
WIRE 720 560 720 528
WIRE 752 560 720 560
WIRE 112 576 48 576
WIRE 464 576 400 576
WIRE 1056 576 1056 384
WIRE 1056 576 1024 576
WIRE 1536 576 1248 576
WIRE 752 592 688 592
WIRE 1072 608 1072 416
WIRE 1072 608 1024 608
WIRE 1536 608 1248 608
WIRE 752 624 688 624
WIRE 1088 640 1088 448
WIRE 1088 640 1024 640
WIRE 1536 640 1248 640
WIRE 752 656 688 656
WIRE 752 688 688 688
WIRE 80 720 80 384
WIRE 432 720 432 0
WIRE 752 720 688 720
WIRE 1088 736 1024 736
WIRE 1536 736 1248 736
WIRE 752 752 688 752
WIRE 1072 768 1024 768
WIRE 1536 768 1248 768
WIRE 752 784 688 784
WIRE 1056 800 1024 800
WIRE 1536 800 1248 800
WIRE 752 816 688 816
WIRE 1040 832 1024 832
WIRE 1536 832 1248 832
WIRE 752 848 688 848
WIRE 752 880 720 880
WIRE 400 992 304 992
WIRE -320 1008 -400 1008
WIRE -48 1008 -48 944
WIRE -48 1008 -128 1008
WIRE 80 1008 -48 1008
WIRE 304 1008 304 992
WIRE 304 1008 240 1008
WIRE 720 1008 720 880
WIRE 768 1008 768 960
WIRE 768 1008 720 1008
WIRE 800 1008 800 960
WIRE 1088 1008 1088 736
WIRE 1536 1008 1088 1008
WIRE 720 1024 720 1008
WIRE 80 1040 48 1040
WIRE 400 1040 240 1040
WIRE 1072 1040 1072 768
WIRE 1536 1040 1072 1040
WIRE 1056 1072 1056 800
WIRE 1536 1072 1056 1072
WIRE 48 1088 48 1040
WIRE 400 1088 336 1088
WIRE 1040 1104 1040 832
WIRE 1536 1104 1040 1104
FLAG 800 1008 +24V
FLAG 720 1024 0
FLAG 720 160 0
FLAG 336 1088 D6
FLAG 48 1088 0
FLAG 800 144 +24V
FLAG -48 944 +24V
FLAG -400 1008 Supply_In
FLAG 752 -272 X
FLAG 752 -240 X
FLAG 752 -144 X
FLAG 752 -112 X
FLAG 688 -208 D36
FLAG 688 -176 D37
FLAG 688 -80 D34
FLAG 688 -48 D35
FLAG 688 592 D38
FLAG 688 624 D39
FLAG 688 656 D40
FLAG 688 688 D41
FLAG 688 720 D42
FLAG 688 752 D43
FLAG 688 784 D44
FLAG 688 816 D45
FLAG -160 272 D7
FLAG -224 304 X
FLAG -208 464 0
FLAG 80 720 0
FLAG -160 336 A7
FLAG -176 368 +5V
FLAG 48 224 VRx
FLAG 48 64 5V
FLAG 688 -16 5V
FLAG 688 848 5V
FLAG 48 512 Y_STEP1
FLAG 48 496 A_STEP1
FLAG 48 528 X_STEP2
FLAG 48 544 Y_STEP2
FLAG 48 560 Z_STEP2
FLAG 48 576 A_STEP2
FLAG 464 512 Y_DIR1
FLAG 464 496 A_DIR1
FLAG 464 528 X_DIR2
FLAG 464 544 Y_DIR2
FLAG 464 560 Z_DIR2
FLAG 464 576 A_DIR2
FLAG 464 128 PWM
FLAG 432 720 0
FLAG 112 112 X
FLAG 112 128 X
FLAG 112 144 X
FLAG 112 160 X
FLAG 112 176 X
FLAG 112 192 X
FLAG 112 208 X
FLAG 112 240 X
FLAG 112 256 X
FLAG 112 272 X
FLAG 112 288 X
FLAG 112 304 X
FLAG 112 320 X
FLAG 112 336 X
FLAG 112 352 X
FLAG 112 400 X
FLAG 112 416 X
FLAG 112 432 X
FLAG 112 448 X
FLAG 112 464 X
FLAG 112 480 X
FLAG 112 592 X
FLAG 112 608 X
FLAG 112 624 X
FLAG 112 640 X
FLAG 400 640 X
FLAG 400 624 X
FLAG 400 608 X
FLAG 400 592 X
FLAG 400 480 X
FLAG 400 464 X
FLAG 400 448 X
FLAG 400 432 X
FLAG 400 416 X
FLAG 400 400 X
FLAG 400 352 X
FLAG 400 336 X
FLAG 400 320 X
FLAG 400 304 X
FLAG 400 288 X
FLAG 400 272 X
FLAG 400 256 X
FLAG 400 240 X
FLAG 400 224 X
FLAG 400 208 X
FLAG 400 192 X
FLAG 400 176 X
FLAG 400 160 X
FLAG 400 144 X
FLAG 400 112 X
FLAG 400 96 X
FLAG 400 80 X
FLAG 400 64 X
FLAG 400 48 X
FLAG 400 32 X
FLAG 400 16 X
FLAG 400 -16 X
FLAG 400 -32 X
FLAG 400 -48 X
FLAG 112 48 X
FLAG 112 32 X
FLAG 112 16 X
FLAG 112 0 X
FLAG 464 368 5V
FLAG 464 384 5V
FLAG 1024 -32 X
FLAG 1024 -64 X
FLAG 1024 -96 X
FLAG 1024 -128 X
FLAG 1024 -224 X
FLAG 1024 -256 X
FLAG 1024 -288 X
FLAG 1024 -320 X
SYMBOL symbols\\Arduino_Mega 416 96 R0
SYMATTR InstName X1
SYMBOL symbols\\CNC_Shield 880 80 R0
WINDOW 3 0 0 Left 0
SYMATTR InstName X2
SYMBOL symbols\\CNC_Shield 880 944 R0
SYMATTR InstName X3
SYMBOL symbols\\Stepper_Motor 1648 -272 R0
SYMATTR InstName X4
SYMBOL symbols\\Stepper_Motor 1648 -80 R0
SYMATTR InstName X5
SYMBOL symbols\\Stepper_Motor 1648 400 R0
SYMATTR InstName X6
SYMBOL symbols\\Stepper_Motor 1648 592 R0
SYMATTR InstName X7
SYMBOL symbols\\Stepper_Motor 1648 784 R0
SYMATTR InstName X8
SYMBOL symbols\\Stepper_Motor 1648 1056 R0
SYMATTR InstName X9
SYMBOL symbols\\Joystick -144 320 R0
SYMATTR InstName X10
SYMBOL symbols\\Servo_Motor 432 1040 R0
SYMATTR InstName X11
SYMBOL symbols\\Buck_Converter 128 1040 R0
SYMATTR InstName X12
SYMBOL symbols\\Switch -128 1056 R0
SYMATTR InstName X13
TEXT 784 -384 Left 2 ;1
TEXT 784 480 Left 2 ;2
TEXT 1160 240 Left 2 ;CNC Shield 2
TEXT 1160 -464 Left 2 ;CNC Shield 1
TEXT 184 -160 Left 2 ;Microcontroller
TEXT -352 152 Left 2 ;Joystick/Control
TEXT -200 848 Left 2 ;Input Situation + Buck and Servo Motor
RECTANGLE Normal 1856 1200 624 256 2
RECTANGLE Normal 1856 -448 624 192 2
RECTANGLE Normal 528 -144 -48 768 2
RECTANGLE Normal -448 176 -128 544 2
RECTANGLE Normal -528 864 528 1200 2
